Version 4
SHEET 1 900 1096
WIRE 320 80 -96 80
WIRE 496 80 320 80
WIRE 320 176 320 80
WIRE 336 320 336 240
FLAG 336 320 0
SYMBOL nand_min 336 256 R0
SYMATTR InstName X1
SYMBOL MinedaLIB\\NMOS_MIN -352 224 R0
SYMATTR InstName M1
SYMATTR Value2 l=10.0U w=10.0U
SYMBOL MinedaLIB\\NMOS_MIN -240 224 R0
SYMATTR InstName M2
SYMATTR Value2 l=10.0U w=10.0U
SYMBOL MinedaLIB\\NMOS_MIN -112 224 R0
SYMATTR InstName M3
SYMATTR Value2 l=10.0U w=10.0U
SYMBOL MinedaLIB\\NMOS_MIN 0 224 R0
SYMATTR InstName M4
SYMATTR Value2 l=10.0U w=10.0U
SYMBOL MinedaLIB\\NMOS_MIN -352 368 R0
SYMATTR InstName M5
SYMATTR Value2 l=10.0U w=10.0U
SYMBOL MinedaLIB\\NMOS_MIN -240 368 R0
SYMATTR InstName M6
SYMATTR Value2 l=10.0U w=10.0U
SYMBOL MinedaLIB\\NMOS_MIN -112 368 R0
SYMATTR InstName M7
SYMATTR Value2 l=10.0U w=10.0U
SYMBOL MinedaLIB\\NMOS_MIN 0 368 R0
SYMATTR InstName M8
SYMATTR Value2 l=10.0U w=10.0U
SYMBOL MinedaLIB\\NMOS_MIN -352 512 R0
SYMATTR InstName M9
SYMATTR Value2 l=10.0U w=10.0U
SYMBOL MinedaLIB\\NMOS_MIN -240 512 R0
SYMATTR InstName M10
SYMATTR Value2 l=10.0U w=10.0U
SYMBOL MinedaLIB\\NMOS_MIN -112 512 R0
SYMATTR InstName M11
SYMATTR Value2 l=10.0U w=10.0U
SYMBOL MinedaLIB\\NMOS_MIN 0 512 R0
SYMATTR InstName M12
SYMATTR Value2 l=10.0U w=10.0U
SYMBOL MinedaLIB\\PMOS_MIN 432 224 R0
SYMATTR InstName M14
SYMATTR Value2 l=10u w=40u
SYMBOL MinedaLIB\\PMOS_MIN 544 224 R0
SYMATTR InstName M15
SYMATTR Value2 l=10u w=40u
SYMBOL MinedaLIB\\PMOS_MIN 656 224 R0
SYMATTR InstName M16
SYMATTR Value2 l=10u w=40u
SYMBOL MinedaLIB\\PMOS_MIN 768 224 R0
SYMATTR InstName M17
SYMATTR Value2 l=10u w=40u
SYMBOL MinedaLIB\\PMOS_MIN 432 368 R0
SYMATTR InstName M18
SYMATTR Value2 l=10u w=40u
SYMBOL MinedaLIB\\PMOS_MIN 544 368 R0
SYMATTR InstName M19
SYMATTR Value2 l=10u w=40u
SYMBOL MinedaLIB\\PMOS_MIN 656 368 R0
SYMATTR InstName M20
SYMATTR Value2 l=10u w=40u
SYMBOL MinedaLIB\\PMOS_MIN 768 368 R0
SYMATTR InstName M21
SYMATTR Value2 l=10u w=40u
SYMBOL MinedaLIB\\PMOS_MIN 432 496 R0
SYMATTR InstName M22
SYMATTR Value2 l=10u w=40u
SYMBOL MinedaLIB\\PMOS_MIN 544 496 R0
SYMATTR InstName M23
SYMATTR Value2 l=10u w=40u
SYMBOL MinedaLIB\\PMOS_MIN 656 496 R0
SYMATTR InstName M24
SYMATTR Value2 l=10u w=40u
SYMBOL MinedaLIB\\PMOS_MIN 768 496 R0
SYMATTR InstName M25
SYMATTR Value2 l=10u w=40u
SYMBOL MinedaLIB\\NMOS_MIN -352 656 R0
SYMATTR InstName M13
SYMATTR Value2 l=10.0U w=10.0U
SYMBOL MinedaLIB\\NMOS_MIN -240 656 R0
SYMATTR InstName M26
SYMATTR Value2 l=10.0U w=10.0U
SYMBOL MinedaLIB\\PMOS_MIN 432 640 R0
SYMATTR InstName M27
SYMATTR Value2 l=10u w=40u
SYMBOL MinedaLIB\\PMOS_MIN 544 640 R0
SYMATTR InstName M28
SYMATTR Value2 l=10u w=40u
