Version 4
SHEET 1 944 680
WIRE 160 0 -128 0
WIRE 160 32 160 0
WIRE 128 48 16 48
WIRE -128 64 -128 0
WIRE 16 64 16 48
WIRE 240 64 208 64
WIRE 128 80 96 80
WIRE 96 96 96 80
WIRE -128 208 -128 144
WIRE 16 208 16 144
WIRE 16 208 -128 208
WIRE 96 208 96 176
WIRE 96 208 16 208
WIRE 176 208 176 96
WIRE 176 208 96 208
WIRE 176 224 176 208
FLAG 176 224 0
FLAG 240 64 out
IOPIN 240 64 Out
FLAG 96 80 A
FLAG 16 48 B
SYMBOL nand_min 176 112 R0
SYMATTR InstName X1
SYMBOL voltage 16 48 R0
SYMATTR InstName V1
SYMATTR Value PULSE(0 3 0 0 0 2m 4m)
SYMBOL voltage 96 80 R0
WINDOW 123 0 0 Left 0
WINDOW 39 0 0 Left 0
SYMATTR InstName V2
SYMATTR Value PULSE(0 3 0 0 0 1m 2m)
SYMBOL voltage -128 48 R0
SYMATTR InstName V3
SYMATTR Value 3
TEXT -72 264 Left 2 !.include %HOMEPATH%\\KLayout\\salt\\ICPS2023_5\\Technology\\tech\\models\\SOI_CMOS
TEXT -74 284 Left 2 !.tran 10m
